<?xml version="1.0" encoding="UTF-8"?>
<configuration>
    <input>
        <net-file value="demo.net.xml"/>
        <route-files value="demo.rou.xml"/>
    </input>
    <time>
        <begin value="0"/>
        <end value="300"/>
    </time>
    <report>
        <verbose value="true"/>
        <no-step-log value="false"/>
    </report>
</configuration>
