<?xml version="1.0" encoding="UTF-8"?>
<routes>
    <vType id="car" accel="1.0" decel="5.0" sigma="0.5" length="5.0" minGap="2.5" maxSpeed="13.9"/>

    <route id="r0" edges="e0 e1"/>

    <vehicle id="veh0" type="car" route="r0" depart="0"/>
    <vehicle id="veh1" type="car" route="r0" depart="10"/>
    <vehicle id="veh2" type="car" route="r0" depart="20"/>
    <vehicle id="veh3" type="car" route="r0" depart="30"/>
    <vehicle id="veh4" type="car" route="r0" depart="40"/>
</routes>
