<?xml version="1.0" encoding="UTF-8"?>

<!-- generated on 2025-10-09 01:03:02 by Eclipse SUMO netconvert Version 1.24.0
<netconvertConfiguration xmlns:xsi="http://www.w3.org/2001/XMLSchema-instance" xsi:noNamespaceSchemaLocation="http://sumo.dlr.de/xsd/netconvertConfiguration.xsd">

    <input>
        <node-files value="nodes.nod.xml"/>
        <edge-files value="edges.edg.xml"/>
    </input>

    <output>
        <output-file value="demo.net.xml"/>
    </output>

</netconvertConfiguration>
-->

<net version="1.20" junctionCornerDetail="5" limitTurnSpeed="5.50" xmlns:xsi="http://www.w3.org/2001/XMLSchema-instance" xsi:noNamespaceSchemaLocation="http://sumo.dlr.de/xsd/net_file.xsd">

    <location netOffset="0.00,0.00" convBoundary="0.00,0.00,200.00,100.00" origBoundary="0.00,0.00,200.00,100.00" projParameter="!"/>

    <edge id=":n0_0" function="internal">
        <lane id=":n0_0_0" index="0" speed="6.08" length="7.74" shape="-1.60,3.20 -1.30,1.10 -0.40,-0.40 1.10,-1.30 3.20,-1.60"/>
    </edge>
    <edge id=":n0_1" function="internal">
        <lane id=":n0_1_0" index="0" speed="3.90" length="2.58" shape="3.20,1.60 2.50,1.70 2.00,2.00 1.70,2.50 1.60,3.20"/>
    </edge>
    <edge id=":n1_0" function="internal">
        <lane id=":n1_0_0" index="0" speed="6.51" length="9.03" shape="98.40,7.20 98.05,4.75 97.00,3.00 95.25,1.95 92.80,1.60"/>
    </edge>
    <edge id=":n1_1" function="internal">
        <lane id=":n1_1_0" index="0" speed="8.00" length="14.19" shape="98.40,7.20 98.95,3.35 100.60,0.60 103.35,-1.05 107.20,-1.60"/>
    </edge>
    <edge id=":n1_2" function="internal">
        <lane id=":n1_2_0" index="0" speed="3.65" length="4.67" shape="98.40,7.20 99.20,6.00 100.00,5.60 100.80,6.00 101.60,7.20"/>
    </edge>
    <edge id=":n1_3" function="internal">
        <lane id=":n1_3_0" index="0" speed="6.51" length="9.03" shape="107.20,1.60 104.75,1.95 103.00,3.00 101.95,4.75 101.60,7.20"/>
    </edge>
    <edge id=":n1_4" function="internal">
        <lane id=":n1_4_0" index="0" speed="13.90" length="14.40" shape="107.20,1.60 92.80,1.60"/>
    </edge>
    <edge id=":n1_5" function="internal">
        <lane id=":n1_5_0" index="0" speed="3.65" length="1.44" shape="107.20,1.60 106.00,0.80"/>
    </edge>
    <edge id=":n1_9" function="internal">
        <lane id=":n1_9_0" index="0" speed="3.65" length="3.23" shape="106.00,0.80 105.60,0.00 106.00,-0.80 107.20,-1.60"/>
    </edge>
    <edge id=":n1_6" function="internal">
        <lane id=":n1_6_0" index="0" speed="13.90" length="14.40" shape="92.80,-1.60 107.20,-1.60"/>
    </edge>
    <edge id=":n1_7" function="internal">
        <lane id=":n1_7_0" index="0" speed="8.00" length="4.07" shape="92.80,-1.60 96.65,-1.05 96.80,-0.96"/>
    </edge>
    <edge id=":n1_8" function="internal">
        <lane id=":n1_8_0" index="0" speed="3.65" length="1.44" shape="92.80,-1.60 94.00,-0.80"/>
    </edge>
    <edge id=":n1_10" function="internal">
        <lane id=":n1_10_0" index="0" speed="8.00" length="10.13" shape="96.80,-0.96 99.40,0.60 101.05,3.35 101.60,7.20"/>
    </edge>
    <edge id=":n1_11" function="internal">
        <lane id=":n1_11_0" index="0" speed="3.65" length="3.23" shape="94.00,-0.80 94.40,0.00 94.00,0.80 92.80,1.60"/>
    </edge>
    <edge id=":n2_0" function="internal">
        <lane id=":n2_0_0" index="0" speed="3.90" length="2.58" shape="198.40,3.20 198.30,2.50 198.00,2.00 197.50,1.70 196.80,1.60"/>
    </edge>
    <edge id=":n2_1" function="internal">
        <lane id=":n2_1_0" index="0" speed="6.08" length="7.74" shape="196.80,-1.60 198.90,-1.30 200.40,-0.40 201.30,1.10 201.60,3.20"/>
    </edge>
    <edge id=":n3_0" function="internal">
        <lane id=":n3_0_0" index="0" speed="6.08" length="7.74" shape="3.20,101.60 1.10,101.30 -0.40,100.40 -1.30,98.90 -1.60,96.80"/>
    </edge>
    <edge id=":n3_1" function="internal">
        <lane id=":n3_1_0" index="0" speed="3.90" length="2.58" shape="1.60,96.80 1.70,97.50 2.00,98.00 2.50,98.30 3.20,98.40"/>
    </edge>
    <edge id=":n4_0" function="internal">
        <lane id=":n4_0_0" index="0" speed="13.90" length="14.40" shape="107.20,101.60 92.80,101.60"/>
    </edge>
    <edge id=":n4_1" function="internal">
        <lane id=":n4_1_0" index="0" speed="8.00" length="4.07" shape="107.20,101.60 103.35,101.05 103.20,100.96"/>
    </edge>
    <edge id=":n4_2" function="internal">
        <lane id=":n4_2_0" index="0" speed="3.65" length="1.44" shape="107.20,101.60 106.00,100.80"/>
    </edge>
    <edge id=":n4_9" function="internal">
        <lane id=":n4_9_0" index="0" speed="8.00" length="10.13" shape="103.20,100.96 100.60,99.40 98.95,96.65 98.40,92.80"/>
    </edge>
    <edge id=":n4_10" function="internal">
        <lane id=":n4_10_0" index="0" speed="3.65" length="3.23" shape="106.00,100.80 105.60,100.00 106.00,99.20 107.20,98.40"/>
    </edge>
    <edge id=":n4_3" function="internal">
        <lane id=":n4_3_0" index="0" speed="6.51" length="9.03" shape="101.60,92.80 101.95,95.25 103.00,97.00 104.75,98.05 107.20,98.40"/>
    </edge>
    <edge id=":n4_4" function="internal">
        <lane id=":n4_4_0" index="0" speed="8.00" length="14.19" shape="101.60,92.80 101.05,96.65 99.40,99.40 96.65,101.05 92.80,101.60"/>
    </edge>
    <edge id=":n4_5" function="internal">
        <lane id=":n4_5_0" index="0" speed="3.65" length="4.67" shape="101.60,92.80 100.80,94.00 100.00,94.40 99.20,94.00 98.40,92.80"/>
    </edge>
    <edge id=":n4_6" function="internal">
        <lane id=":n4_6_0" index="0" speed="6.51" length="9.03" shape="92.80,98.40 95.25,98.05 97.00,97.00 98.05,95.25 98.40,92.80"/>
    </edge>
    <edge id=":n4_7" function="internal">
        <lane id=":n4_7_0" index="0" speed="13.90" length="14.40" shape="92.80,98.40 107.20,98.40"/>
    </edge>
    <edge id=":n4_8" function="internal">
        <lane id=":n4_8_0" index="0" speed="3.65" length="1.44" shape="92.80,98.40 94.00,99.20"/>
    </edge>
    <edge id=":n4_11" function="internal">
        <lane id=":n4_11_0" index="0" speed="3.65" length="3.23" shape="94.00,99.20 94.40,100.00 94.00,100.80 92.80,101.60"/>
    </edge>
    <edge id=":n5_0" function="internal">
        <lane id=":n5_0_0" index="0" speed="6.08" length="7.74" shape="201.60,96.80 201.30,98.90 200.40,100.40 198.90,101.30 196.80,101.60"/>
    </edge>
    <edge id=":n5_1" function="internal">
        <lane id=":n5_1_0" index="0" speed="3.90" length="2.58" shape="196.80,98.40 197.50,98.30 198.00,98.00 198.30,97.50 198.40,96.80"/>
    </edge>

    <edge id="e0" from="n0" to="n1" priority="-1">
        <lane id="e0_0" index="0" speed="13.90" length="89.60" shape="3.20,-1.60 92.80,-1.60"/>
    </edge>
    <edge id="e0r" from="n1" to="n0" priority="-1">
        <lane id="e0r_0" index="0" speed="13.90" length="89.60" shape="92.80,1.60 3.20,1.60"/>
    </edge>
    <edge id="e1" from="n1" to="n2" priority="-1">
        <lane id="e1_0" index="0" speed="13.90" length="89.60" shape="107.20,-1.60 196.80,-1.60"/>
    </edge>
    <edge id="e1r" from="n2" to="n1" priority="-1">
        <lane id="e1r_0" index="0" speed="13.90" length="89.60" shape="196.80,1.60 107.20,1.60"/>
    </edge>
    <edge id="e2" from="n3" to="n4" priority="-1">
        <lane id="e2_0" index="0" speed="13.90" length="89.60" shape="3.20,98.40 92.80,98.40"/>
    </edge>
    <edge id="e2r" from="n4" to="n3" priority="-1">
        <lane id="e2r_0" index="0" speed="13.90" length="89.60" shape="92.80,101.60 3.20,101.60"/>
    </edge>
    <edge id="e3" from="n4" to="n5" priority="-1">
        <lane id="e3_0" index="0" speed="13.90" length="89.60" shape="107.20,98.40 196.80,98.40"/>
    </edge>
    <edge id="e3r" from="n5" to="n4" priority="-1">
        <lane id="e3r_0" index="0" speed="13.90" length="89.60" shape="196.80,101.60 107.20,101.60"/>
    </edge>
    <edge id="e4" from="n0" to="n3" priority="-1">
        <lane id="e4_0" index="0" speed="13.90" length="93.60" shape="1.60,3.20 1.60,96.80"/>
    </edge>
    <edge id="e4r" from="n3" to="n0" priority="-1">
        <lane id="e4r_0" index="0" speed="13.90" length="93.60" shape="-1.60,96.80 -1.60,3.20"/>
    </edge>
    <edge id="e5" from="n1" to="n4" priority="-1">
        <lane id="e5_0" index="0" speed="13.90" length="85.60" shape="101.60,7.20 101.60,92.80"/>
    </edge>
    <edge id="e5r" from="n4" to="n1" priority="-1">
        <lane id="e5r_0" index="0" speed="13.90" length="85.60" shape="98.40,92.80 98.40,7.20"/>
    </edge>
    <edge id="e6" from="n2" to="n5" priority="-1">
        <lane id="e6_0" index="0" speed="13.90" length="93.60" shape="201.60,3.20 201.60,96.80"/>
    </edge>
    <edge id="e6r" from="n5" to="n2" priority="-1">
        <lane id="e6r_0" index="0" speed="13.90" length="93.60" shape="198.40,96.80 198.40,3.20"/>
    </edge>

    <junction id="n0" type="priority" x="0.00" y="0.00" incLanes="e4r_0 e0r_0" intLanes=":n0_0_0 :n0_1_0" shape="-3.20,3.20 3.20,3.20 3.20,-3.20 -0.36,-2.49 -1.60,-1.60 -2.49,-0.36 -3.02,1.24">
        <request index="0" response="00" foes="00" cont="0"/>
        <request index="1" response="00" foes="00" cont="0"/>
    </junction>
    <junction id="n1" type="priority" x="100.00" y="0.00" incLanes="e5r_0 e1r_0 e0_0" intLanes=":n1_0_0 :n1_1_0 :n1_2_0 :n1_3_0 :n1_4_0 :n1_9_0 :n1_6_0 :n1_10_0 :n1_11_0" shape="96.80,7.20 103.20,7.20 103.64,4.98 104.20,4.20 104.98,3.64 105.98,3.31 107.20,3.20 107.20,-3.20 92.80,-3.20 92.80,3.20 95.02,3.64 95.80,4.20 96.36,4.98 96.69,5.98">
        <request index="0" response="000010000" foes="100010000" cont="0"/>
        <request index="1" response="011010000" foes="011110000" cont="0"/>
        <request index="2" response="010001000" foes="010001000" cont="0"/>
        <request index="3" response="000000000" foes="010000100" cont="0"/>
        <request index="4" response="000000000" foes="110000011" cont="0"/>
        <request index="5" response="001000010" foes="001000010" cont="1"/>
        <request index="6" response="000000000" foes="000100010" cont="0"/>
        <request index="7" response="000011000" foes="000011110" cont="1"/>
        <request index="8" response="000010001" foes="000010001" cont="1"/>
    </junction>
    <junction id="n2" type="priority" x="200.00" y="0.00" incLanes="e6r_0 e1_0" intLanes=":n2_0_0 :n2_1_0" shape="196.80,3.20 203.20,3.20 202.49,-0.36 201.60,-1.60 200.36,-2.49 198.76,-3.02 196.80,-3.20">
        <request index="0" response="00" foes="00" cont="0"/>
        <request index="1" response="00" foes="00" cont="0"/>
    </junction>
    <junction id="n3" type="priority" x="0.00" y="100.00" incLanes="e2r_0 e4_0" intLanes=":n3_0_0 :n3_1_0" shape="3.20,103.20 3.20,96.80 -3.20,96.80 -2.49,100.36 -1.60,101.60 -0.36,102.49 1.24,103.02">
        <request index="0" response="00" foes="00" cont="0"/>
        <request index="1" response="00" foes="00" cont="0"/>
    </junction>
    <junction id="n4" type="priority" x="100.00" y="100.00" incLanes="e3r_0 e5_0 e2_0" intLanes=":n4_0_0 :n4_9_0 :n4_10_0 :n4_3_0 :n4_4_0 :n4_5_0 :n4_6_0 :n4_7_0 :n4_11_0" shape="107.20,103.20 107.20,96.80 104.98,96.36 104.20,95.80 103.64,95.02 103.31,94.02 103.20,92.80 96.80,92.80 96.36,95.02 95.80,95.80 95.02,96.36 94.02,96.69 92.80,96.80 92.80,103.20">
        <request index="0" response="000000000" foes="100010000" cont="0"/>
        <request index="1" response="011000000" foes="011110000" cont="1"/>
        <request index="2" response="010001000" foes="010001000" cont="1"/>
        <request index="3" response="010000000" foes="010000100" cont="0"/>
        <request index="4" response="010000011" foes="110000011" cont="0"/>
        <request index="5" response="001000010" foes="001000010" cont="0"/>
        <request index="6" response="000000000" foes="000100010" cont="0"/>
        <request index="7" response="000000000" foes="000011110" cont="0"/>
        <request index="8" response="000010001" foes="000010001" cont="1"/>
    </junction>
    <junction id="n5" type="priority" x="200.00" y="100.00" incLanes="e6_0 e3_0" intLanes=":n5_0_0 :n5_1_0" shape="203.20,96.80 196.80,96.80 196.80,103.20 200.36,102.49 201.60,101.60 202.49,100.36 203.02,98.76">
        <request index="0" response="00" foes="00" cont="0"/>
        <request index="1" response="00" foes="00" cont="0"/>
    </junction>

    <junction id=":n1_9_0" type="internal" x="106.00" y="0.80" incLanes=":n1_5_0 e0_0 e5r_0" intLanes=":n1_1_0 :n1_6_0"/>
    <junction id=":n1_10_0" type="internal" x="96.80" y="-0.96" incLanes=":n1_7_0 e1r_0" intLanes=":n1_1_0 :n1_2_0 :n1_3_0 :n1_4_0"/>
    <junction id=":n1_11_0" type="internal" x="94.00" y="-0.80" incLanes=":n1_8_0 e1r_0 e5r_0" intLanes=":n1_0_0 :n1_4_0"/>
    <junction id=":n4_9_0" type="internal" x="103.20" y="100.96" incLanes=":n4_1_0 e2_0" intLanes=":n4_4_0 :n4_5_0 :n4_6_0 :n4_7_0"/>
    <junction id=":n4_10_0" type="internal" x="106.00" y="100.80" incLanes=":n4_2_0 e2_0 e5_0" intLanes=":n4_3_0 :n4_7_0"/>
    <junction id=":n4_11_0" type="internal" x="94.00" y="99.20" incLanes=":n4_8_0 e3r_0 e5_0" intLanes=":n4_0_0 :n4_4_0"/>

    <connection from="e0" to="e1" fromLane="0" toLane="0" via=":n1_6_0" dir="s" state="M"/>
    <connection from="e0" to="e5" fromLane="0" toLane="0" via=":n1_7_0" dir="l" state="m"/>
    <connection from="e0" to="e0r" fromLane="0" toLane="0" via=":n1_8_0" dir="t" state="m"/>
    <connection from="e0r" to="e4" fromLane="0" toLane="0" via=":n0_1_0" dir="r" state="M"/>
    <connection from="e1" to="e6" fromLane="0" toLane="0" via=":n2_1_0" dir="l" state="M"/>
    <connection from="e1r" to="e5" fromLane="0" toLane="0" via=":n1_3_0" dir="r" state="M"/>
    <connection from="e1r" to="e0r" fromLane="0" toLane="0" via=":n1_4_0" dir="s" state="M"/>
    <connection from="e1r" to="e1" fromLane="0" toLane="0" via=":n1_5_0" dir="t" state="m"/>
    <connection from="e2" to="e5r" fromLane="0" toLane="0" via=":n4_6_0" dir="r" state="M"/>
    <connection from="e2" to="e3" fromLane="0" toLane="0" via=":n4_7_0" dir="s" state="M"/>
    <connection from="e2" to="e2r" fromLane="0" toLane="0" via=":n4_8_0" dir="t" state="m"/>
    <connection from="e2r" to="e4r" fromLane="0" toLane="0" via=":n3_0_0" dir="l" state="M"/>
    <connection from="e3" to="e6r" fromLane="0" toLane="0" via=":n5_1_0" dir="r" state="M"/>
    <connection from="e3r" to="e2r" fromLane="0" toLane="0" via=":n4_0_0" dir="s" state="M"/>
    <connection from="e3r" to="e5r" fromLane="0" toLane="0" via=":n4_1_0" dir="l" state="m"/>
    <connection from="e3r" to="e3" fromLane="0" toLane="0" via=":n4_2_0" dir="t" state="m"/>
    <connection from="e4" to="e2" fromLane="0" toLane="0" via=":n3_1_0" dir="r" state="M"/>
    <connection from="e4r" to="e0" fromLane="0" toLane="0" via=":n0_0_0" dir="l" state="M"/>
    <connection from="e5" to="e3" fromLane="0" toLane="0" via=":n4_3_0" dir="r" state="m"/>
    <connection from="e5" to="e2r" fromLane="0" toLane="0" via=":n4_4_0" dir="l" state="m"/>
    <connection from="e5" to="e5r" fromLane="0" toLane="0" via=":n4_5_0" dir="t" state="m"/>
    <connection from="e5r" to="e0r" fromLane="0" toLane="0" via=":n1_0_0" dir="r" state="m"/>
    <connection from="e5r" to="e1" fromLane="0" toLane="0" via=":n1_1_0" dir="l" state="m"/>
    <connection from="e5r" to="e5" fromLane="0" toLane="0" via=":n1_2_0" dir="t" state="m"/>
    <connection from="e6" to="e3r" fromLane="0" toLane="0" via=":n5_0_0" dir="l" state="M"/>
    <connection from="e6r" to="e1r" fromLane="0" toLane="0" via=":n2_0_0" dir="r" state="M"/>

    <connection from=":n0_0" to="e0" fromLane="0" toLane="0" dir="l" state="M"/>
    <connection from=":n0_1" to="e4" fromLane="0" toLane="0" dir="r" state="M"/>
    <connection from=":n1_0" to="e0r" fromLane="0" toLane="0" dir="r" state="M"/>
    <connection from=":n1_1" to="e1" fromLane="0" toLane="0" dir="l" state="M"/>
    <connection from=":n1_2" to="e5" fromLane="0" toLane="0" dir="t" state="M"/>
    <connection from=":n1_3" to="e5" fromLane="0" toLane="0" dir="r" state="M"/>
    <connection from=":n1_4" to="e0r" fromLane="0" toLane="0" dir="s" state="M"/>
    <connection from=":n1_5" to="e1" fromLane="0" toLane="0" via=":n1_9_0" dir="t" state="m"/>
    <connection from=":n1_9" to="e1" fromLane="0" toLane="0" dir="t" state="M"/>
    <connection from=":n1_6" to="e1" fromLane="0" toLane="0" dir="s" state="M"/>
    <connection from=":n1_7" to="e5" fromLane="0" toLane="0" via=":n1_10_0" dir="l" state="m"/>
    <connection from=":n1_10" to="e5" fromLane="0" toLane="0" dir="l" state="M"/>
    <connection from=":n1_8" to="e0r" fromLane="0" toLane="0" via=":n1_11_0" dir="t" state="m"/>
    <connection from=":n1_11" to="e0r" fromLane="0" toLane="0" dir="t" state="M"/>
    <connection from=":n2_0" to="e1r" fromLane="0" toLane="0" dir="r" state="M"/>
    <connection from=":n2_1" to="e6" fromLane="0" toLane="0" dir="l" state="M"/>
    <connection from=":n3_0" to="e4r" fromLane="0" toLane="0" dir="l" state="M"/>
    <connection from=":n3_1" to="e2" fromLane="0" toLane="0" dir="r" state="M"/>
    <connection from=":n4_0" to="e2r" fromLane="0" toLane="0" dir="s" state="M"/>
    <connection from=":n4_1" to="e5r" fromLane="0" toLane="0" via=":n4_9_0" dir="l" state="m"/>
    <connection from=":n4_9" to="e5r" fromLane="0" toLane="0" dir="l" state="M"/>
    <connection from=":n4_2" to="e3" fromLane="0" toLane="0" via=":n4_10_0" dir="t" state="m"/>
    <connection from=":n4_10" to="e3" fromLane="0" toLane="0" dir="t" state="M"/>
    <connection from=":n4_3" to="e3" fromLane="0" toLane="0" dir="r" state="M"/>
    <connection from=":n4_4" to="e2r" fromLane="0" toLane="0" dir="l" state="M"/>
    <connection from=":n4_5" to="e5r" fromLane="0" toLane="0" dir="t" state="M"/>
    <connection from=":n4_6" to="e5r" fromLane="0" toLane="0" dir="r" state="M"/>
    <connection from=":n4_7" to="e3" fromLane="0" toLane="0" dir="s" state="M"/>
    <connection from=":n4_8" to="e2r" fromLane="0" toLane="0" via=":n4_11_0" dir="t" state="m"/>
    <connection from=":n4_11" to="e2r" fromLane="0" toLane="0" dir="t" state="M"/>
    <connection from=":n5_0" to="e3r" fromLane="0" toLane="0" dir="l" state="M"/>
    <connection from=":n5_1" to="e6r" fromLane="0" toLane="0" dir="r" state="M"/>

</net>
