<?xml version="1.0" encoding="UTF-8"?>
<edges>
    <edge id="e0" from="n0" to="n1" priority="1" numLanes="1" speed="13.9"/>
    <edge id="e1" from="n1" to="n2" priority="1" numLanes="1" speed="13.9"/>
</edges>
