<?xml version="1.0" encoding="UTF-8"?>
<nodes>
    <node id="n0" x="0.0" y="0.0" type="priority"/>
    <node id="n1" x="100.0" y="0.0" type="priority"/>
    <node id="n2" x="200.0" y="0.0" type="priority"/>
    <node id="n3" x="0.0" y="100.0" type="priority"/>
    <node id="n4" x="100.0" y="100.0" type="priority"/>
    <node id="n5" x="200.0" y="100.0" type="priority"/>
</nodes>
